          10
  -3.21603132583729     
 Au  0.728804841298179       -1.84919842198772        1.22456625899472     
 Au   1.63779913124812      -0.358362028809062      -0.845504928612837     
 Au   1.78551525453205       0.612014982978391        1.56844898714026     
 Au  -1.88701645329280        2.24956200887693      -0.692460462347462     
 Au  0.796326647567847        2.17651169047485      -0.397846937959969     
 Au -0.512210092878011       0.600306654335036       -2.16910851191828     
 Au  -2.72699393846631      -0.308290563359597      -0.902916610147298     
 Au -0.554218482745253       -1.90427024407214       -1.15973166666860     
 Au -0.757890711484304       0.345097949816591       0.800293252750731     
 Au  -1.95877290620383       -2.02862341037561        1.03170354737224     
          10
  -3.21603132583729     
 Au -0.305665557819956       -1.84612629031025        1.56455330315204     
 Au -0.639869506514266       0.541821487811689       0.385052995216223     
 Au   1.72738321568340        1.80719832293604       0.397052708479228     
 Au  8.157769932812196E-002  -1.94316767889109       -1.11400674944293     
 Au  0.941005564945931       0.346966535443709        2.52820193403301     
 Au  -1.33231704859501       0.109957188643774       -2.17213636636366     
 Au -0.150033096053498        2.42572716456902       -1.44283690767106     
 Au  -2.31058595405948       -1.45671833455152      -0.202115682778413     
 Au   1.98515602259516      -0.887236980783548       0.484402366422875     
 Au   1.34642955088776       0.329731303170909       -1.84036182867345     
          10
  -3.21603132583729     
 Au   1.64929104556708       -1.71442916458339       0.431369327157806     
 Au  -1.33916351143374       0.746590037536613       -1.58599174433138     
 Au  0.271454501924420       0.535739375779771       0.924842521629672     
 Au -0.601191717167050       -1.78236042838578        1.92240135951563     
 Au  -1.48293140386705        2.46911090857971       0.364105150834242     
 Au  -2.34432326753244      -5.320750603773644E-002  0.798129900402219     
 Au  0.819586795270426        2.28614341394947       -1.03496475129224     
 Au   1.14544513864596      -0.286931324256428       -1.81417015834181     
 Au -0.822966856196419       -1.74234767692435      -0.673718799090542     
 Au   2.76114523507453       0.703704580111059      -2.565713192681893E-002
          10
  -3.21603132583729     
 Au -0.600531723810659        2.43295145964557       -1.55632613719668     
 Au   1.64811920784241       0.941506785559490       -1.44850496849802     
 Au  0.437551798186586       -1.01368401314807        2.23319044113746     
 Au  -1.88702073378230       0.355139481460905        2.35626944352149     
 Au -0.796509232128668      -0.147319478301539       -1.86360432769881     
 Au  4.615093752969601E-002   1.15109000688710       0.695085558178413     
 Au   2.51678306681090       0.182970815944246       0.993320154737972     
 Au  -1.54965815815423       -1.36373237901048       0.426945416289701     
 Au   1.02845951971338       -1.46452504461230      -0.370965586337742     
 Au  -2.49579597706777        1.10351502038671      -0.165989549566151     
          10
  -3.21603132583729     
 Au -0.674683113758519       0.116429317264209       -2.37606842989078     
 Au   1.74790757772424      -0.811105053095870       -1.62560325497904     
 Au  9.083735205006158E-002   1.56269522312941        1.67109294048081     
 Au  -2.18644396344271       9.723686522982326E-002   1.69300226891182     
 Au -0.312230823883402      -0.930069993191827       6.906456448570285E-002
 Au   1.03137237596913        1.57463573229448      -0.860460575259546     
 Au  0.141335550765243      -0.831501195499575        2.69866215984142     
 Au  -1.62734100561392        1.71315224329486      -0.407064314665008     
 Au   2.08701611161427      -0.125406448229204       0.964239707384401     
 Au  -2.79356556790114      -0.574498500195590      -0.851135823838129     
          10
  -3.21603132583729     
 Au -0.817961895804462       3.042768086086973E-002  -2.87310843618795     
 Au   2.15373408642862      -0.759080161075351       0.191010703579582     
 Au  -2.12669153554944      -0.284677080866500      -0.523216100574166     
 Au   1.79561262692954      -0.520143085280386       -2.47490787839489     
 Au  -1.29346239268734        1.71836770364323        1.09777097415182     
 Au -0.277864659838059      -0.775865727795320        1.38311143424426     
 Au  0.503476613011205        1.11089317251331      -0.801490110932918     
 Au  1.796580628517024E-002  -1.82600980851676       -1.08735281824193     
 Au   1.29029075663527        1.27365727472019        1.74500810940861     
 Au  -1.86777722600557        2.11267965077790       -1.51127950480336     
          10
  -3.21603132583729     
 Au  -1.75950916158636        1.18436666364174       0.825047157940447     
 Au   1.98489552322516      -0.816401988714675        1.73030070747942     
 Au  0.344982184137556      -0.993229319476260       -2.28498780433766     
 Au  -2.10380095518263      -0.201632426720066       -1.46688067741756     
 Au -0.361039264166770      -1.371525855598244E-002   2.80022951099297     
 Au   1.87543675448131       -2.32788073871964      -0.504853513170556     
 Au   2.20166311752860       0.245716510557760      -0.751427395322136     
 Au  0.892363549830670        1.60049779538196        1.18346644220915     
 Au -0.127900911729978        1.49048547206855       -1.31462670746905     
 Au -0.292572853801333       -1.00667575608641       0.322415233632863     
          10
  -3.21603132583729     
 Au  -2.99977536629061        1.05349139554571        1.15703284349900     
 Au  -2.61058708717229      -0.813132069274170      -0.755220551926720     
 Au -0.776865401803448      -0.425969560064375        1.16643961770554     
 Au   1.47009086173070       0.584069581789233        2.19659996183774     
 Au -0.659738864933338       -2.63211441128209      -0.333369760051820     
 Au   1.13839725058947        1.36928202127855      -0.265928391420143     
 Au -0.606448385330795        2.21325017318644        1.62544408483418     
 Au   1.59549187776430       -1.25485114985538       0.222996947382677     
 Au  -1.47839530462035        1.64409550097029      -0.874521893986466     
 Au -0.108468367570578      -0.513567691792054       -1.74704787571518     
          10
  -3.21603132583729     
 Au   1.55333611522684       -1.47547331260007        1.13873733915982     
 Au  -1.53724808984641      -0.710397526342484       -1.81186837639443     
 Au -0.670782497219596      -5.670592379659543E-002  0.643153519865220     
 Au  0.157341329956135        1.40194594535234       -1.83260557524906     
 Au   2.08013400785773       0.925957602125295       3.100110580726009E-003
 Au   1.12578771404335       -1.09819570012732       -1.50869958948028     
 Au -0.528351394200808       -2.59776057107241      -0.164916068409773     
 Au   1.10181225513188       0.859790735621159        2.41746000944979     
 Au  -2.18260011738893        1.67284878388716      -0.718195014196649     
 Au -3.287797830647924E-003   2.54310783358758       0.618109851773378     
          10
  -3.21603132583729     
 Au   1.77135592683561       0.240879516281967      -0.938889278169435     
 Au -0.907600927577882        1.12098243380556        2.42230458295584     
 Au  -2.41411165336193       0.658107879860777       0.229444293812292     
 Au -0.759790687613033       0.274069576789631       -1.88000943029463     
 Au  0.492704727518006       -2.08949030089165       -1.45704566877830     
 Au   2.18151851971466       -1.79893332411748       0.630045188054477     
 Au  -2.14205180576675       -1.74223981845979      -0.977526312392511     
 Au   1.65430500493892       0.604760113564171        1.74214565978595     
 Au -3.710644111050804E-002   1.95028499464053       0.110352661701688     
 Au -0.339182888055593      -0.938782017563003       0.820901058188691     
          10
  -3.21603132583729     
 Au  -1.54146878971995      -0.612184524650039        1.78757107683344     
 Au  0.356022358329989        1.31848557983483        1.86566548375929     
 Au  -1.13410314763441       0.533594705856107      -0.605429328355136     
 Au  0.325583655974419        1.71529686131749       -2.50361698221817     
 Au  -2.11629646506789        1.99776230698819        1.39999617257269     
 Au   1.78557156619779        1.15312186223738      -0.419625689647189     
 Au -0.175967134318962        3.00551159656576      -0.184941432210262     
 Au  -1.12555642743073       -2.12928568583985      -0.407396981632322     
 Au  0.756304796218321      -0.877980406920808       -1.88567202100072     
 Au  0.936031001929711       -1.09761101486901       0.807563832947912     
          10
  -3.21603132583729     
 Au  -2.54273455544384      -0.324916146929264       0.761221888097066     
 Au   2.59546114988258       0.539516903830158       0.350065194075764     
 Au -3.120067102184674E-002  0.570930149203636       0.902214349502703     
 Au   1.52335843007300       -1.94498771351152       0.459110872733365     
 Au -0.938647822975030       -1.82246838890145      -0.644078148039407     
 Au   1.66273391554423      -0.534197158145311        2.64563086258240     
 Au -0.661863432939180       -1.77244044962330        2.04942252492138     
 Au   1.08788159222941      -0.384094817385633       -1.70132545433074     
 Au  0.918875471770056        2.13203727272621       -1.04471186001850     
 Au  -1.36182339592129       0.736447280767990       -1.42313618070179     
          10
  -3.21603132583729     
 Au -0.643815033127168       -1.55506980961076       0.311370214968249     
 Au  0.633526214678894      -0.587145334203397        2.49439104628059     
 Au   1.75832908021620        1.88600945214459      -0.891085256844487     
 Au   2.31433980344329        1.37190901654354        1.70102134183750     
 Au  -2.30700131186253       0.404967279659108      -0.540759047115439     
 Au -0.810605013667623        2.42624264305365       -1.52448037953070     
 Au  -2.00595067941375      -0.202017752220230        2.07331850402662     
 Au   1.88541144841615      -0.633646262218488       9.341639250407330E-002
 Au -0.216053094150887        1.35551779443205       0.848340348936865     
 Au  5.597588358085286E-002 -1.640803101526901E-002  -1.79488819846843     
          10
  -3.21603132583729     
 Au   1.61412266009671       -1.03615355624060        2.12532915624983     
 Au -0.584468569775726       0.764506248678705       -2.26114667966768     
 Au -0.823670460248364       -1.78933420850741        1.24082519691609     
 Au   2.11366713395128        1.40267991996150        1.07890176419477     
 Au -0.155238272398432        2.31631128684594      -8.359740647449557E-002
 Au   1.86832626400695        1.67785283573907       -1.59627138162566     
 Au  -1.25322857141052       -1.71435073869141       -1.42419282283542     
 Au  -1.98268925366635       0.330414466448750       1.714250315105865E-002
 Au  0.869334902925514      -0.477747118703826      -0.377408403635219     
 Au -0.304056613137586       0.727451263123645        2.09513818687828     
          10
  -3.21603132583729     
 Au  -1.60544378898700      -9.956278218023068E-002   1.57837141095783     
 Au  -2.19174933911766      -0.182799174443460       -1.05655354669534     
 Au -0.491860025047601       -1.65944833698680       -2.36823518032061     
 Au  0.691107797434358      -0.444119310771981      -0.305764735291033     
 Au  -1.13247485215838       -2.35785595314431       0.160460756343383     
 Au  -1.00221176366494        2.00247144399875      -6.265755609203149E-003
 Au  0.779518165675997        1.15461997656150        1.84863172433712     
 Au  0.509636017065851       -1.51726832089875        2.13260379448029     
 Au   1.54004493647888        2.07331506121821      -0.574189393048531     
 Au -0.162875033819336        1.02083068137369       -2.38659213589834     
          10
  -3.21603132583729     
 Au  -2.17008172666427       -1.07970214784871       -1.26967048468242     
 Au  -3.21620466206836       0.846770326839183       0.307286787228937     
 Au  0.309519475733045       -1.67777667207222      -0.359756639321216     
 Au   1.06820048845728        2.50499336876826       0.725532700421680     
 Au -0.739374253997148        1.10699094873082      -0.655946427754878     
 Au  -1.61186576876234      -0.907457347673804        1.37471696365249     
 Au  0.896352360767298       6.331574431479249E-002   1.61957059270458     
 Au  6.580368038537297E-002 -0.469048312591304       -2.65544900122650     
 Au  -1.22684091601807        1.71882770243053        1.91178406532718     
 Au   1.86148110747672       0.480661550408472      -0.876107147301277     
          10
  -3.21603132583729     
 Au  -1.17500220003916       0.257623760796941       -1.27952588677111     
 Au  0.828812298418202       -1.52921845894624      -0.987234797722753     
 Au -0.344329018781672        2.69738435136768      -0.894590280865880     
 Au   1.34295670701526       0.918307034453591       -2.02614423821762     
 Au -0.998867042788545       -1.21674074180896       0.976297156617649     
 Au  -1.59474794041352        1.42056539910193        1.12992188427628     
 Au   1.00598092252151       0.975926373659888       0.636248496832497     
 Au   1.62606602252256       -1.45150004703999        1.59973342154955     
 Au   3.07848062389595      -0.354804746722183      -0.395314176158781     
 Au -4.346425854869836E-002  0.178953159137144        2.95868694718435     
          10
  -3.21603132583729     
 Au   1.18950160809630      -0.424365279338731       -2.09724150795084     
 Au   1.52186807567001        2.08541353631949       -1.15755721395045     
 Au   1.95697791569267       8.129478864682960E-002  0.450178026309565     
 Au -0.739224643206781       0.757831397398213      -0.652376828758516     
 Au  -2.10651613369554        1.29137658753960        1.57833276797371     
 Au  0.439993565372341        2.15094161892950        1.31584474464281     
 Au -0.167186049086950      -0.383558045247407        2.05184936257390     
 Au  0.299116864954999       -1.98577329948170      -7.158647892338459E-002
 Au  -1.31000219151948       -1.44544247042822       -2.04880766812502     
 Au  -2.22475506800821       -1.17154247753901       0.477191063698251     
          10
  -3.21603132583729     
 Au  -2.82595572274577      -0.156063899248546      -9.172769829323267E-002
 Au -0.477618986354291       0.150113114681757       -1.32533708642401     
 Au  -1.51503820333249       -2.31091139324868       -1.05639927200486     
 Au -0.962591061927163        1.50288301663607       0.941824912148675     
 Au   1.10334542549417        2.19456440807300      -0.653777508929546     
 Au  0.516251182601401       -1.85841484611569       -2.77732171892484     
 Au -0.890041166910146       -1.17740976513679        1.32238426476948     
 Au   1.41028853325086       0.198717945072263       0.993343601800279     
 Au   2.18237689000708      -9.900439599021314E-002  -1.58527994016820     
 Au   1.06658610767814       -2.17401659027277      -0.249842314146833     
          10
  -3.21603132583729     
 Au  -1.57834823473551       0.936590933008915        1.20491040274846     
 Au   1.03983729381030       0.457225845739790       -2.22414765841339     
 Au -4.403428838392713E-002 -0.641658469323187        2.76935061322735     
 Au -0.347313385333634        2.27706979412475      -0.790116724351718     
 Au   1.32521851581237       -2.28925491425139        1.12525925512986     
 Au   2.73835262854088       -1.15108729665668      -0.874763290565360     
 Au  0.911629743469721       0.275775944000139       0.450893756851424     
 Au  0.332970737755970       -2.01693727363068       -1.37980478825509     
 Au  -1.29592127513787       -1.71870249821195       0.753567810384041     
 Au  -1.47346987803398      -9.992199208855416E-003  -1.33025018764158     
          10
  -3.21603132583729     
 Au   1.20398231765484      -0.106206420619890      -0.560825059379851     
 Au   2.05184898389525       0.867455502830387        1.79253686175657     
 Au -3.410838980286910E-002   1.87833298502194       -1.87761765346957     
 Au   2.20421050132382        2.36706211854026      -0.448094694786851     
 Au -0.609348919435607       -2.02025914213875      -5.739694992355386E-002
 Au   1.59289338246527       -1.77603303588993        1.48628245320755     
 Au -0.432449399623444      -0.200468337094907        1.94038337969125     
 Au  -1.73021812994257       0.428444427108176      -0.342986285935916     
 Au -0.623886300366725      -0.701757612506624       -2.41404843511065     
 Au -7.456617922474927E-002   2.22502272028564       0.807941463304865     
          10
  -3.21603132583729     
 Au -0.638156338245928      -0.728025756019457        2.00350505650681     
 Au -5.633999668544441E-002   2.13880362366722       -2.32779132396774     
 Au -0.852337816280630       0.975264586514357      -6.002012915685141E-002
 Au   1.76450556142246       0.189966317049253        1.15582313966335     
 Au   1.67243568716653       0.355991137417876       -1.53814617849195     
 Au   1.30094969975636        2.57774000090851      -3.485363793749257E-002
 Au  0.466029841224164       -1.70067574112268      -0.269990752879204     
 Au  0.100928888024240        1.85520886225092        2.27390413050502     
 Au -0.786144063136884      -0.461167214869548       -2.32662329417401     
 Au  -2.11705845407318       -1.37428559130613      -0.161595484452067     
          10
  -3.21603132583729     
 Au  -1.04217135407000       -2.00720019581773      -2.706081146607131E-002
 Au   1.52775102965655       -1.59751910145428      -0.748256971849425     
 Au   1.38590562042237        2.24531616784979        1.79993019621970     
 Au  -1.83586394144277       -1.00959819923290        2.35354959700210     
 Au  -1.17564583522124        1.60885175763513        2.37074616673464     
 Au   1.98946682986753        1.05562674111951      -0.548008595179063     
 Au -0.374463059214918        2.30587943459648      -0.120501886868808     
 Au  0.467498387957997      -0.205046866340380        1.26845005881668     
 Au -0.291422531964584       5.616943790017893E-002  -1.61228640161231     
 Au  -2.26058271022438       0.400355837361354       0.203603373316093     
          10
  -3.21603132583729     
 Au  8.416811088653724E-002  -2.34878213335125       -2.06023661082861     
 Au -0.473218844523513      -0.878507713340317       9.796512327194183E-002
 Au  0.941378223914637       9.491500385366447E-002  -2.35034060000354     
 Au  -1.72639818176672      -0.351311057137572       -2.21651390672400     
 Au   1.71149757870961        1.16154002479892       8.205337892814272E-003
 Au   2.08175158379502       -1.47917615460820      -0.464646024258288     
 Au -0.488553502742897        1.36311946278957        1.57447461742576     
 Au  -2.64733548337828       0.671770047372674       0.106768937885519     
 Au -0.657725194237775        1.86323607275135       -1.08171111457529     
 Au   1.39964518576828      -0.526829791993176        1.96850646761216     
          10
  -3.21603132583729     
 Au   2.70817956806896       -1.05351456228745       0.717294081290030     
 Au  0.152547680495254       -1.92851409404473       0.910114900091029     
 Au  -1.30930974438018       0.157890484257359        1.82878089285941     
 Au  -1.34192372112655      -0.472700446407804      -0.804724322254214     
 Au  0.306053846747619        1.28647492772896       -2.03903801526787     
 Au  -1.42551543791202        2.03675830562777      -0.107404956030123     
 Au  0.918229451520428       0.939915669783584       0.551395473809621     
 Au   1.12726132281462      -0.449985362776650        2.82179250406339     
 Au   2.84393360222800       0.749379171827598       -1.28859941357037     
 Au   1.15753869112538       -1.22637047700453       -1.49623070559253     
          10
  -3.21603132583729     
 Au  -1.12931295221617      -0.983926374742008       -2.91121366416595     
 Au -0.600230480896341        2.33061780316528       0.253376304006240     
 Au  -1.05323114063311       -1.96787959817704      -0.499435724371628     
 Au   1.35637900150530       -1.57567627029731       0.655322835492443     
 Au   1.19359009271687       -2.02548028562238       -2.01024173968489     
 Au -0.743490512753468      -2.744689094423501E-002   1.35320930021869     
 Au  0.464919001282720       0.468672382387576       -1.33685565257290     
 Au   1.69144902116641        1.09345747011597       0.967591241471575     
 Au  -2.18161709559652       0.463052834067488      -0.888499899879659     
 Au   2.98665523517678      -0.313985513102867      -0.938716381942626     
          10
  -3.21603132583729     
 Au  0.360319319587593        1.23303879202548       0.624620351661852     
 Au -0.915747259141900      -0.885907193070330       -1.05602214960954     
 Au  -1.59110790519849      -0.379542181760999        1.51721334394698     
 Au  0.691090373199437       -1.72149913016483       0.947317741795919     
 Au  0.130687370517974        1.40817940836874       -2.04405023680475     
 Au   2.71342398614811       6.509795768209317E-002   1.17600088069617     
 Au   1.76229734090578      -0.609276378552258       -1.26830590908249     
 Au  0.676716089373297      -4.892347142158610E-002   2.94554425677741     
 Au  -2.06799872098594        1.37839033114787      -0.476454679718146     
 Au   2.50649496194161        1.85091640981220      -0.839066477734360     
          10
  -3.21603132583729     
 Au -0.940210537044144       0.811579327501268        1.54080676712243     
 Au   1.15878614068990        2.37300657570911       0.871014582848710     
 Au -7.420386583194115E-002  0.917708452287616      -0.997692167729763     
 Au -0.556940881068694       -1.64466820124937       0.466557819160621     
 Au   1.56632546780884      -0.172388364870684        1.25246108972819     
 Au  -2.46806479301430      -0.141863714873194      -0.471423698135932     
 Au   1.30288838000341       6.490503711146398E-002  -3.12055935936290     
 Au   2.60820142516964        1.00614571865352      -0.951991285122068     
 Au   1.65068718271717       -1.52361962915187       -1.08432495765155     
 Au -0.804612431355301       -1.36031061150110       -2.21520613165158     
          10
  -3.21603132583729     
 Au  0.328474404431301        1.61397832179944        1.02500422118922     
 Au   1.43468476403376      -0.554742183161226        1.95429162467160     
 Au  -2.06570989376427      -0.533345480369221       -1.92696185192992     
 Au  -2.87949549324797       -1.33603214801249       0.519650270656394     
 Au  0.532945552174929      -0.913164344583805       -2.55560420209310     
 Au -0.272701511057740       -1.12327739891716      -1.847841856250315E-002
 Au  -2.19717492490243        1.15658794303527       0.185122491756429     
 Au   1.99387078683691       0.201836974804046      -0.576985239989552     
 Au -0.199430501119619        1.40414734859359       -1.61522288431250     
 Au  -1.21718647470509      -0.196075472610014        2.31678443098907     
          10
  -3.21603132583729     
 Au -0.412405221344130        2.01242993883077       -1.52280654873841     
 Au -0.621041791570197        1.59383895502272        1.14464740621944     
 Au -0.189666723934522       -1.03358434255430        1.59639310168421     
 Au   1.81109112225280       0.749676205317383        1.98499084817312     
 Au  -1.57300469990296      -0.247967974332970      -0.585966831677612     
 Au  0.280961743662843       -2.21073628930089      -0.796697050421917     
 Au   2.24883113741737       -1.72095489239806       0.986577457614666     
 Au   1.51197913888553        2.76707020438371       0.214929507035341     
 Au   1.37856605459400       0.231960286417848      -0.613104624927846     
 Au -0.114113375372081      -0.379006680913005       -2.74121393861412     
          10
  -3.21603132583729     
 Au  -1.33740269094679       -1.42996542178975       0.860817809040834     
 Au  0.950709181350583       -2.43735305875581      -0.180226170183281     
 Au  -1.83291733229223       0.919856376747571      -0.374623269218620     
 Au -0.673030608205805       0.899101908038161        2.07247509713244     
 Au   1.72625348112276      -0.855285471686538       -2.22670044083136     
 Au  0.154248007723967        1.33961275463427       -2.16600173784576     
 Au  6.797194150057106E-004   2.69041764490542       0.167280628066810     
 Au -0.822715126413196       -1.15590363861958       -1.77613093136016     
 Au  0.847091503997747       -1.32342325102787        2.27759551667101     
 Au   1.03551414334412       0.229432881968415       0.113489102541821     
          10
  -3.21603132583729     
 Au  -1.15426659505257        1.05201643768920       -1.39624295730357     
 Au  -1.85497643950411       0.125201167077088        1.04169285043596     
 Au   1.36896935672752       -2.42245365825919      -0.496046964904744     
 Au  -1.07249184574117       -1.59844701968342      -0.884512395109087     
 Au  0.941710756623000      -0.426848930558940       -2.26451394122414     
 Au  3.237071429970805E-002  0.521790719062945        2.79419467277236     
 Au -0.316009114808167        2.34364210230960       0.831555482305213     
 Au -0.184569135931170       -1.91655748115995        1.65408115997508     
 Au   1.22928603985738        2.10492742094346       -1.37015793581898     
 Au   1.05830875768649       8.499509757118209E-002  0.367904790307953     
          10
  -3.21603132583729     
 Au -0.342544458416438      -0.190601334925041       -2.50320881839018     
 Au -0.526562083695321       -2.53117442712664       -1.16892296540140     
 Au -0.452394440485511        1.83091150201772      -0.704465614264629     
 Au   1.17684865542049      -0.649919348021893      -0.338565811453785     
 Au   1.85078747561181        1.72465625511159       0.716140305776290     
 Au   1.78547157262833        1.38123334431704       -1.96159347695240     
 Au -0.324802498375885       -1.95686242230175        1.46203171159430     
 Au   1.80432622391018      -0.495800073242220        2.25232998319803     
 Au  -1.80592767565429      -0.459528304078184      -0.240412741449356     
 Au -0.441356370124100       0.732040345625089        1.76249043671728     
          10
  -3.21603132583729     
 Au  0.660892100702991        1.00475093990337       -1.30089968127994     
 Au -0.621700008068724       -1.09228536152062       -2.16578199221050     
 Au -0.587219430764406       -1.02733349163801       0.503452784311267     
 Au   1.70038592598450       -1.45217620704519      -0.835045710415818     
 Au  -2.38770227763642       0.453401770883096        1.80572251062665     
 Au  3.860359273547890E-002  2.292918302271710E-003   2.90208214257667     
 Au  -2.00140109589443       0.814946312133822      -0.842393908660591     
 Au   1.93007155682648       0.499162359744350        1.02870878094705     
 Au   1.54624498562923       -1.95590495814431        1.81353155095167     
 Au -0.372978139575671        1.90964216805810        1.02413709501696     
          10
  -3.21603132583729     
 Au  -1.29433096954004      -0.952327054641417        1.01250919429052     
 Au  0.376090216699765        2.02865925159779       -1.70422331094708     
 Au  0.833870759895072       -2.45451880861717       0.943209553134706     
 Au -0.628464986706012       -2.17592029853341       -1.30988186044637     
 Au   1.01105743915194      -9.335162699106152E-003   2.07552810981917     
 Au -0.669351587922295        1.66353264517880       0.767171513810778     
 Au  -1.68937288106082       0.315601787064573       -1.33904564702751     
 Au   1.90142733459060        2.01375395745381       0.524136625177033     
 Au  0.159081095859504      -0.288710119532257       -3.07359173867812     
 Au   1.14176855347454      -0.290630212184415      -0.590741855317787     
          10
  -3.21603132583729     
 Au   2.29654667640420      -0.266937441468839      -0.339554808978195     
 Au  0.727023690540670       -1.86943257654004        1.17789878946641     
 Au  -2.09010386781092        1.40170367205290        1.96050673533902     
 Au -0.336744189271781      -0.299487984576096        3.11121980116766     
 Au  0.346710134735038        1.08511856229920       0.915550696188867     
 Au  -1.81337216865478      -0.982714982848135       0.946311282603530     
 Au   2.24926549638046      -0.112940272128202        2.35609223974080     
 Au -0.175082441030088      -0.962463877641693       -1.20057215576507     
 Au  0.708335682527382        1.43629552994674       -1.70668568686365     
 Au  -1.78673666890744        1.15832038118441      -0.711795014600325     
          10
  -3.21603132583729     
 Au -7.734623637504640E-002 -0.787219599510952        2.02205071807329     
 Au   1.53361729384002      -0.748684522873688       -2.05867550338891     
 Au -0.182358955589015       -1.87006517471398      -0.449776440588691     
 Au  0.614596237431568        1.00653504373474      -0.268472612363060     
 Au  -2.08537724693143      -0.125006384456305       0.341932592338461     
 Au   2.18403713520186       -1.01181484713962       0.549040015401546     
 Au   1.71299447801371        1.10097476356087        2.16356859466592     
 Au  -1.04355420298053       5.258785009710609E-002  -2.15148341123757     
 Au  -1.71701751682535        2.23213228456245      -0.706320077298254     
 Au -0.874762881663328        1.79309028466811        1.82158674369219     
          10
  -3.21603132583729     
 Au  -1.86835780056779      -0.500306088878581        1.02312804295224     
 Au   1.33333460112965        1.60459516525901       -1.06870803238340     
 Au   1.08320016705272      -0.527231445572301       0.543109542982904     
 Au -2.855295296164820E-002  0.301331692761526        2.84152114455495     
 Au -0.615115098895756       -2.24861550360440      -0.622124325289715     
 Au  -1.02106578306097       0.310513219304080       -1.40960294635145     
 Au   1.18795550034021      -0.886625931279638       -2.10076712402029     
 Au -0.259343837491082       -2.27162452792126        2.05469488779569     
 Au -0.656138810330187        1.89695106267346       0.745288046722125     
 Au   1.81130434217381        1.82324298476873        1.58010335073213     
          10
  -3.21603132583729     
 Au  -1.94473271246540        1.75491358252350      -0.109858504602083     
 Au  0.541670988668697       0.840231750642449      -0.443588388923152     
 Au   2.53752669488133        1.91241888010971       0.969633718314017     
 Au -2.514106545710068E-002   2.37226375741292        1.68639045700755     
 Au  0.931716161055846       -1.46910538152552       -1.72618284663744     
 Au   1.28307890980547       9.779067957087989E-002   2.35675678370929     
 Au  -1.34096898291588       5.582392801489962E-003   1.72478994096437     
 Au  0.342989701915829       -1.88185415548757       0.778545626407351     
 Au  -1.53618537275121      -0.809701285783652      -0.850333622638316     
 Au   2.68155540476885      -0.661491075182722       0.165452792223681     
          10
  -3.21603132583729     
 Au -0.609956634248261       0.334344796555970       -3.23186538202146     
 Au   1.73798703842832       0.966980305031046       -2.05738827039633     
 Au -0.419620476768535       -1.68211661360194       0.660007013856986     
 Au   1.63129087423595        2.18404778962236       0.350894613442993     
 Au  -2.37743100352590       3.804763814407652E-004   1.01610624118050     
 Au  0.615111563327993       -1.48660396891558       -1.82688186589804     
 Au   1.92720447307111      -0.403732838394953       0.270572340921529     
 Au  7.481939108760977E-002  0.652724742370293        1.93989113529550     
 Au  -2.03416183181232       -1.08781880885032       -1.43143380150080     
 Au -0.546063103961624        1.00423529983398      -0.647801493406324     
